grid_simulations/no_EVs/Result_no_EVs/output_voltage_peak.csv
# Result_no_EVs/output_voltage_peak.csv run at 2000-01-01 09:26:00 EST on 963 nodes
node_name,voltA_mag,voltA_angle,voltB_mag,voltB_angle,voltC_mag,voltC_angle
SourceBus,6668.395609,0.000000,6668.395609,4.188790,6668.395609,2.094395
Bus1,251.900822,-0.526991,251.442613,3.659445,251.952085,1.569572
Bus2,251.881019,-0.526824,251.329985,3.659474,251.962969,1.569450
Bus3,251.878943,-0.526807,251.318177,3.659477,251.964110,1.569437
Bus4,251.876998,-0.526790,251.307115,3.659480,251.965179,1.569425
Bus5,251.875303,-0.526776,251.297471,3.659483,251.966112,1.569415
Bus6,251.872632,-0.526753,251.282278,3.659487,251.967580,1.569398
Bus7,251.691070,-0.525218,250.247677,3.659760,252.067756,1.568275
Bus8,251.682952,-0.525150,250.201339,3.659772,252.072250,1.568225
Bus9,251.676197,-0.525092,250.162772,3.659782,252.075991,1.568183
Bus10,251.670269,-0.525042,250.128925,3.659791,252.079275,1.568146
Bus11,251.665845,-0.525005,250.103670,3.659798,252.081725,1.568119
Bus12,251.661694,-0.524969,250.079961,3.659804,252.084025,1.568093
Bus13,251.659141,-0.524948,250.065382,3.659808,252.085440,1.568078
Bus14,251.652786,-0.524894,250.029087,3.659818,252.088962,1.568038
Bus15,251.601332,-0.524457,249.735072,3.659896,252.117508,1.567719
Bus16,251.601332,-0.524457,249.735072,3.659896,252.117508,1.567719
Bus17,251.539000,-0.523927,249.378529,3.659991,252.152159,1.567333
Bus18,251.601332,-0.524457,249.735072,3.659896,252.117508,1.567719
Bus19,251.534714,-0.523891,249.353997,3.659997,252.154544,1.567306
Bus20,251.601332,-0.524457,249.735072,3.659896,252.117508,1.567719
Bus21,251.529902,-0.523850,249.326450,3.660005,252.157223,1.567276
Bus22,251.601332,-0.524457,249.735072,3.659896,252.117508,1.567719
Bus23,251.522067,-0.523783,249.281598,3.660017,252.161586,1.567228
Bus24,251.601332,-0.524457,249.735072,3.659896,252.117508,1.567719
Bus25,251.507816,-0.523662,249.200002,3.660038,252.169523,1.567139
Bus26,251.601332,-0.524457,249.735072,3.659896,252.117508,1.567719
Bus27,251.488501,-0.523643,249.200062,3.660037,252.169734,1.567140
Bus28,251.352007,-0.522161,248.175279,3.660352,252.261715,1.566004
Bus29,251.601332,-0.524457,249.735072,3.659896,252.117508,1.567719
Bus30,251.484063,-0.523639,249.200075,3.660037,252.169782,1.567140
Bus31,251.487642,-0.523642,249.200064,3.660037,252.169743,1.567140
Bus32,251.310624,-0.521761,247.902485,3.660437,252.286312,1.565702
Bus33,251.601332,-0.524457,249.735072,3.659896,252.117508,1.567719
Bus34,251.473898,-0.523629,249.200106,3.660036,252.169893,1.567140
Bus35,251.487613,-0.523642,249.200064,3.660037,252.169743,1.567140
Bus36,251.310758,-0.521761,247.890360,3.660449,252.286349,1.565701
Bus37,251.181813,-0.520565,247.089344,3.660681,252.359683,1.564809
Bus38,251.601332,-0.524457,249.735072,3.659896,252.117508,1.567719
Bus39,251.487572,-0.523642,249.200064,3.660037,252.169744,1.567140
Bus40,251.310766,-0.521761,247.889598,3.660449,252.286351,1.565701
Bus41,251.310762,-0.521761,247.889977,3.660449,252.286350,1.565701
Bus42,251.092637,-0.519735,246.525087,3.660852,252.410716,1.564190
Bus43,251.181813,-0.520565,247.089344,3.660681,252.359683,1.564809
Bus44,251.601332,-0.524457,249.735072,3.659896,252.117508,1.567719
Bus45,251.487518,-0.523642,249.200065,3.660037,252.169745,1.567140
Bus46,251.310770,-0.521761,247.889254,3.660450,252.286352,1.565701
Bus47,251.310772,-0.521761,247.889054,3.660450,252.286352,1.565701
Bus48,251.025366,-0.519107,246.098707,3.660981,252.449344,1.563722
Bus49,251.181813,-0.520565,247.089344,3.660681,252.359683,1.564809
Bus50,251.601332,-0.524457,249.735072,3.659896,252.117508,1.567719
Bus51,251.487387,-0.523642,249.200065,3.660037,252.169746,1.567140
Bus52,251.310774,-0.521761,247.888890,3.660450,252.286353,1.565701
Bus53,251.015676,-0.519016,246.037232,3.661000,252.454917,1.563655
Bus54,251.025366,-0.519107,246.098707,3.660981,252.449344,1.563722
Bus55,251.181813,-0.520565,247.089344,3.660681,252.359683,1.564809
Bus56,251.601332,-0.524457,249.735072,3.659896,252.117508,1.567719
Bus57,251.487275,-0.523642,249.200065,3.660037,252.169747,1.567140
Bus58,251.310778,-0.521761,247.888543,3.660450,252.286354,1.565701
Bus59,250.971804,-0.518606,245.758767,3.661085,252.480180,1.563350
Bus60,251.025366,-0.519107,246.098707,3.660981,252.449344,1.563722
Bus61,251.181813,-0.520565,247.089344,3.660681,252.359683,1.564809
Bus62,251.601332,-0.524457,249.735072,3.659896,252.117508,1.567719
Bus63,251.486739,-0.523641,249.200067,3.660037,252.169753,1.567140
Bus64,251.310780,-0.521761,247.888336,3.660451,252.286355,1.565701
Bus65,250.963378,-0.518523,245.702107,3.661103,252.485158,1.563287
Bus66,250.961338,-0.518596,245.758800,3.661084,252.480293,1.563350
Bus67,251.025366,-0.519107,246.098707,3.660981,252.449344,1.563722
Bus68,251.181813,-0.520565,247.089344,3.660681,252.359683,1.564809
Bus69,251.601332,-0.524457,249.735072,3.659896,252.117508,1.567719
Bus70,251.484845,-0.523639,249.200073,3.660037,252.169774,1.567140
Bus71,251.310784,-0.521761,247.887928,3.660451,252.286356,1.565701
Bus72,250.863958,-0.517542,245.032694,3.661318,252.544048,1.562547
Bus73,250.956896,-0.518591,245.758814,3.661084,252.480341,1.563350
Bus74,250.960665,-0.518595,245.758802,3.661084,252.480300,1.563350
Bus75,251.025366,-0.519107,246.098707,3.660981,252.449344,1.563722
Bus76,251.181813,-0.520565,247.089344,3.660681,252.359683,1.564809
Bus77,251.601332,-0.524457,249.735072,3.659896,252.117508,1.567719
Bus78,251.310807,-0.521761,247.885863,3.660453,252.286362,1.565701
Bus79,250.829359,-0.517200,244.799356,3.661393,252.564609,1.562289
Bus80,251.025366,-0.519107,246.098707,3.660981,252.449344,1.563722
Bus81,251.181813,-0.520565,247.089344,3.660681,252.359683,1.564809
Bus82,251.601332,-0.524457,249.735072,3.659896,252.117508,1.567719
Bus83,251.310893,-0.521760,247.878083,3.660461,252.286385,1.565700
Bus84,250.821813,-0.517125,244.748434,3.661409,252.569098,1.562233
Bus85,251.025366,-0.519107,246.098707,3.660981,252.449344,1.563722
Bus86,251.181813,-0.520565,247.089344,3.660681,252.359683,1.564809
Bus87,251.601332,-0.524457,249.735072,3.659896,252.117508,1.567719
Bus88,250.806514,-0.516974,244.645173,3.661443,252.578204,1.562118
Bus89,251.025366,-0.519107,246.098707,3.660981,252.449344,1.563722
Bus90,251.181813,-0.520565,247.089344,3.660681,252.359683,1.564809
Bus91,251.601332,-0.524457,249.735072,3.659896,252.117508,1.567719
Bus92,250.792091,-0.516831,244.547793,3.661474,252.586794,1.562011
Bus93,251.181813,-0.520565,247.089344,3.660681,252.359683,1.564809
Bus94,251.601332,-0.524457,249.735072,3.659896,252.117508,1.567719
Bus95,250.783711,-0.516748,244.491193,3.661492,252.591788,1.561948
Bus96,251.181813,-0.520565,247.089344,3.660681,252.359683,1.564809
Bus97,251.601332,-0.524457,249.735072,3.659896,252.117508,1.567719
Bus98,250.778177,-0.516693,244.453812,3.661504,252.595087,1.561907
Bus99,251.181813,-0.520565,247.089344,3.660681,252.359683,1.564809
Bus100,251.601332,-0.524457,249.735072,3.659896,252.117508,1.567719
Bus101,250.770538,-0.516617,244.402200,3.661521,252.599642,1.561850
Bus102,251.181813,-0.520565,247.089344,3.660681,252.359683,1.564809
Bus103,251.601332,-0.524457,249.735072,3.659896,252.117508,1.567719
Bus104,250.770776,-0.516618,244.401765,3.661522,252.599045,1.561849
Bus105,250.764224,-0.516565,244.370254,3.661525,252.605700,1.561815
Bus106,251.181813,-0.520565,247.089344,3.660681,252.359683,1.564809
Bus107,250.771063,-0.516618,244.401238,3.661522,252.598323,1.561847
Bus108,250.760644,-0.516536,244.352139,3.661527,252.609135,1.561795
Bus109,251.181813,-0.520565,247.089344,3.660681,252.359683,1.564809
Bus110,250.771397,-0.516619,244.400627,3.661523,252.597486,1.561845
Bus111,250.619564,-0.515373,243.637362,3.661617,252.744759,1.561008
Bus112,251.181813,-0.520565,247.089344,3.660681,252.359683,1.564809
Bus113,250.771906,-0.516619,244.399695,3.661524,252.596209,1.561843
Bus114,250.605450,-0.515256,243.565757,3.661626,252.758354,1.560929
Bus115,251.181813,-0.520565,247.089344,3.660681,252.359683,1.564809
Bus116,250.772560,-0.516620,244.398498,3.661526,252.594568,1.561839
Bus117,250.606533,-0.515252,243.562020,3.661625,252.758358,1.560923
Bus118,250.551758,-0.514958,243.377866,3.661567,252.801237,1.560734
Bus119,251.181813,-0.520565,247.089344,3.660681,252.359683,1.564809
Bus120,250.773029,-0.516621,244.397638,3.661527,252.593390,1.561837
Bus121,250.606533,-0.515252,243.562020,3.661625,252.758358,1.560923
Bus122,250.607061,-0.515250,243.560201,3.661624,252.758360,1.560920
Bus123,250.454989,-0.514420,243.039033,3.661460,252.878595,1.560383
Bus124,251.181813,-0.520565,247.089344,3.660681,252.359683,1.564809
Bus125,250.773693,-0.516622,244.396423,3.661528,252.591726,1.561833
Bus126,250.606533,-0.515252,243.562020,3.661625,252.758358,1.560923
Bus127,250.609539,-0.515242,243.551655,3.661622,252.758369,1.560905
Bus128,250.411495,-0.514178,242.886661,3.661412,252.913393,1.560225
Bus129,251.181813,-0.520565,247.089344,3.660681,252.359683,1.564809
Bus130,250.774410,-0.516623,244.395109,3.661530,252.589925,1.561829
Bus131,250.606533,-0.515252,243.562020,3.661625,252.758358,1.560923
Bus132,250.605711,-0.515238,243.551667,3.661621,252.758410,1.560905
Bus133,250.617710,-0.515217,243.527273,3.661616,252.758052,1.560863
Bus134,250.398558,-0.514106,242.841326,3.661398,252.923747,1.560178
Bus135,251.181813,-0.520565,247.089344,3.660681,252.359683,1.564809
Bus136,250.775087,-0.516624,244.393869,3.661531,252.588226,1.561826
Bus137,250.606533,-0.515252,243.562020,3.661625,252.758358,1.560923
Bus138,250.605381,-0.515238,243.551668,3.661621,252.758414,1.560905
Bus139,250.623788,-0.515199,243.509134,3.661613,252.757816,1.560831
Bus140,250.383955,-0.514025,242.790152,3.661381,252.935436,1.560125
Bus141,251.181813,-0.520565,247.089344,3.660681,252.359683,1.564809
Bus142,250.776200,-0.516626,244.391831,3.661534,252.585434,1.561820
Bus143,250.606533,-0.515252,243.562020,3.661625,252.758358,1.560923
Bus144,250.605057,-0.515237,243.551669,3.661621,252.758417,1.560905
Bus145,250.627859,-0.515187,243.496987,3.661610,252.757658,1.560810
Bus146,250.370223,-0.513948,242.742023,3.661366,252.946430,1.560075
Bus147,251.181813,-0.520565,247.089344,3.660681,252.359683,1.564809
Bus148,250.781492,-0.516634,244.382142,3.661546,252.572156,1.561792
Bus149,250.606533,-0.515252,243.562020,3.661625,252.758358,1.560923
Bus150,250.604796,-0.515237,243.551670,3.661621,252.758420,1.560905
Bus151,250.628001,-0.515189,243.497448,3.661612,252.756169,1.560809
Bus152,250.629125,-0.515182,243.382393,3.661726,252.758013,1.560803
Bus153,250.354203,-0.513859,242.685867,3.661348,252.959258,1.560017
Bus154,251.181813,-0.520565,247.089344,3.660681,252.359683,1.564809
Bus155,250.782645,-0.516636,244.380031,3.661549,252.569263,1.561786
Bus156,250.606533,-0.515252,243.562020,3.661625,252.758358,1.560923
Bus157,250.604404,-0.515237,243.551671,3.661621,252.758424,1.560905
Bus158,250.628377,-0.515196,243.498672,3.661617,252.752221,1.560808
Bus159,250.629202,-0.515182,243.375419,3.661733,252.758034,1.560803
Bus160,250.349593,-0.513833,242.669708,3.661343,252.962950,1.560000
Bus161,251.181813,-0.520565,247.089344,3.660681,252.359683,1.564809
Bus162,250.782680,-0.516636,244.376871,3.661552,252.569273,1.561786
Bus163,250.786935,-0.516643,244.372272,3.661559,252.558301,1.561763
Bus164,250.606533,-0.515252,243.562020,3.661625,252.758358,1.560923
Bus165,250.603931,-0.515236,243.551672,3.661621,252.758429,1.560905
Bus166,250.628508,-0.515198,243.499097,3.661618,252.750850,1.560808
Bus167,250.629273,-0.515182,243.369047,3.661740,252.758054,1.560803
Bus168,250.323409,-0.513687,242.577908,3.661314,252.983923,1.559905
Bus169,251.181813,-0.520565,247.089344,3.660681,252.359683,1.564809
Bus170,250.782686,-0.516636,244.376274,3.661552,252.569275,1.561786
Bus171,250.792630,-0.516653,244.361972,3.661572,252.543747,1.561733
Bus172,250.606533,-0.515252,243.562020,3.661625,252.758358,1.560923
Bus173,250.603574,-0.515236,243.551674,3.661621,252.758433,1.560905
Bus174,250.628508,-0.515198,243.499097,3.661618,252.750850,1.560808
Bus175,250.628538,-0.515199,243.499220,3.661619,252.739750,1.560819
Bus176,250.629302,-0.515182,243.366400,3.661742,252.758062,1.560803
Bus177,250.308622,-0.513605,242.526059,3.661298,252.995770,1.559851
Bus178,250.782700,-0.516636,244.375043,3.661554,252.569279,1.561786
Bus179,250.793323,-0.516650,244.359382,3.661571,252.544057,1.561729
Bus180,250.792730,-0.516655,244.362366,3.661573,252.507903,1.561769
Bus181,250.606533,-0.515252,243.562020,3.661625,252.758358,1.560923
Bus182,250.603161,-0.515236,243.551675,3.661621,252.758438,1.560906
Bus183,250.628508,-0.515198,243.499097,3.661618,252.750850,1.560808
Bus184,250.628541,-0.515199,243.499233,3.661619,252.738551,1.560820
Bus185,250.629365,-0.515181,243.360694,3.661748,252.758080,1.560802
Bus186,250.297647,-0.513544,242.487570,3.661286,253.004565,1.559811
Bus187,250.796052,-0.516638,244.349189,3.661567,252.545274,1.561713
Bus188,250.793141,-0.516663,244.363996,3.661579,252.359557,1.561914
Bus189,250.606533,-0.515252,243.562020,3.661625,252.758358,1.560923
Bus190,250.602773,-0.515235,243.551676,3.661621,252.758442,1.560906
Bus191,250.628508,-0.515198,243.499097,3.661618,252.750850,1.560808
Bus192,250.628508,-0.515198,243.499097,3.661618,252.750850,1.560808
Bus193,250.628545,-0.515199,243.499245,3.661619,252.737391,1.560821
Bus194,250.629526,-0.515181,243.346163,3.661763,252.758125,1.560801
Bus195,250.287780,-0.513489,242.452967,3.661275,253.012472,1.559775
Bus196,250.800923,-0.516617,244.330991,3.661559,252.547448,1.561684
Bus197,250.793214,-0.516665,244.364285,3.661580,252.333219,1.561939
Bus198,250.793146,-0.516663,244.364013,3.661579,252.358022,1.561915
Bus199,250.606533,-0.515252,243.562020,3.661625,252.758358,1.560923
Bus200,250.602354,-0.515235,243.551677,3.661621,252.758446,1.560906
...
SourceBus_1,6665.094105,-0.001271,6662.285478,4.188137,6667.254578,2.093798
LOAD1,251.473898,-0.523629,249.200106,3.660036,252.169893,1.567140
LOAD2,251.310772,-0.521761,247.889054,3.660450,252.286352,1.565701
LOAD3,251.484845,-0.523639,249.200073,3.660037,252.169774,1.567140
LOAD4,250.956896,-0.518591,245.758814,3.661084,252.480341,1.563350
LOAD5,250.960665,-0.518595,245.758802,3.661084,252.480300,1.563350
LOAD6,251.310893,-0.521760,247.878083,3.660461,252.286385,1.565700
LOAD7,250.782700,-0.516636,244.375043,3.661554,252.569279,1.561786
LOAD8,250.793399,-0.516668,244.365017,3.661583,252.266631,1.562005
LOAD9,250.789395,-0.516605,244.331027,3.661558,252.547572,1.561684
LOAD10,250.808875,-0.516587,244.052079,3.661819,252.549968,1.561642
LOAD11,250.808086,-0.516590,244.123486,3.661747,252.549747,1.561647
LOAD12,250.793172,-0.516664,244.364118,3.661580,252.348394,1.561925
LOAD13,250.631446,-0.515174,243.172364,3.661940,252.758664,1.560792
LOAD14,250.595165,-0.515228,243.551700,3.661621,252.758524,1.560906
LOAD15,250.631227,-0.515175,243.192173,3.661919,252.758602,1.560793
LOAD16,250.628630,-0.515201,243.499589,3.661620,252.706204,1.560851
LOAD17,250.628585,-0.515200,243.499408,3.661619,252.722621,1.560835
LOAD18,249.349092,-0.510943,241.279406,3.659945,253.459799,1.559261
LOAD19,250.132927,-0.512624,241.908189,3.661104,253.104637,1.559242
LOAD20,249.743600,-0.511649,241.488543,3.660546,253.324554,1.559072
LOAD21,250.188910,-0.512951,242.117044,3.661168,253.089287,1.559427
LOAD22,249.742666,-0.511649,241.488546,3.660546,253.324564,1.559072
LOAD23,249.098720,-0.510478,241.126748,3.659575,253.593937,1.559330
LOAD24,250.120427,-0.511848,241.359209,3.661172,253.217139,1.558487
LOAD25,247.142994,-0.506924,240.161411,3.656521,254.428647,1.560126
LOAD26,250.406116,-0.510146,239.351734,3.662562,253.355502,1.556307
LOAD27,250.181492,-0.511485,241.065614,3.661330,253.237229,1.558027
LOAD28,250.181485,-0.511485,241.065584,3.661329,253.240020,1.558024
LOAD29,245.576883,-0.504841,239.854804,3.655541,254.694667,1.560390
LOAD30,247.149132,-0.506930,240.161390,3.656522,254.428581,1.560126
LOAD31,245.845374,-0.505110,239.853889,3.655557,254.691809,1.560380
LOAD32,250.383064,-0.510070,239.938778,3.661879,253.319775,1.556302
LOAD33,246.738166,-0.505324,239.392334,3.656067,254.688406,1.559585
LOAD34,247.670160,-0.507880,240.422016,3.657325,254.208010,1.559918
LOAD35,246.808343,-0.505073,238.703563,3.656774,254.730228,1.559207
LOAD36,246.688303,-0.505482,239.449321,3.656007,254.702642,1.559807
LOAD37,246.688614,-0.505480,239.421503,3.656036,254.702727,1.559806
LOAD38,250.359291,-0.509938,239.831123,3.661878,253.377647,1.556181
LOAD39,250.368415,-0.509810,239.755118,3.661891,253.368212,1.556051
LOAD40,250.386868,-0.509688,239.630784,3.661966,253.398025,1.555886
LOAD41,250.458913,-0.509267,239.319977,3.662195,253.437786,1.555366
LOAD42,250.368444,-0.509811,239.755242,3.661892,253.356966,1.556062
LOAD43,250.509282,-0.509008,239.129749,3.662346,253.454204,1.555041
LOAD44,250.396501,-0.510119,239.847096,3.662019,253.356950,1.556294
LOAD45,250.458944,-0.509267,239.317203,3.662198,253.437795,1.555366
LOAD46,250.185857,-0.509741,239.837026,3.661831,253.384355,1.556169
LOAD47,250.509281,-0.509008,239.129744,3.662346,253.454685,1.555041
LOAD48,250.135243,-0.509691,239.837191,3.661828,253.384894,1.556171
LOAD49,250.162163,-0.509718,239.837103,3.661829,253.384607,1.556170
LOAD50,250.626114,-0.508487,238.511474,3.662907,253.512177,1.554343
LOAD51,250.390075,-0.509498,239.533338,3.662016,253.415961,1.555689
LOAD52,250.538077,-0.508673,238.891929,3.662529,253.493311,1.554648
LOAD53,250.626114,-0.508487,238.368605,3.663060,253.512177,1.554343
LOAD54,250.379560,-0.509487,239.533372,3.662015,253.416073,1.555689
LOAD55,250.546447,-0.508680,238.892038,3.662527,253.493668,1.554650
